{"root":["./src/index.tsx","./src/api/auth.ts","./src/api/dashboard.ts","./src/api/devices.ts","./src/api/futureskills.ts","./src/api/index.ts","./src/api/linkreview.ts","./src/api/llm-enhanced.ts","./src/api/llm.ts","./src/api/llmmetrics.ts","./src/api/permissions.ts","./src/api/skills-complete.ts","./src/api/skills-dynamic.ts","./src/api/skills-orchestrator.ts","./src/api/skills.ts","./src/api/subscriptions-backend-stubs.ts","./src/api/subscriptions-enhanced.ts","./src/api/subscriptions.ts","./src/api/tieredreview.ts","./src/api/tiers.ts","./src/client/components/aceycontrolcenter.tsx","./src/client/components/interactiveaceydashboard.tsx","./src/client/components/ui/alert.tsx","./src/client/components/ui/badge.tsx","./src/client/components/ui/button.tsx","./src/client/components/ui/card.tsx","./src/client/components/ui/progress.tsx","./src/client/components/ui/tabs.tsx","./src/components/aceyactivityfeed.tsx","./src/components/approvalitem.tsx","./src/components/audiopreview.tsx","./src/components/auditreplay.tsx","./src/components/biometricauthprompt.tsx","./src/components/chatinput.tsx","./src/components/codesnippet.tsx","./src/components/devicepairing.tsx","./src/components/featuretooltip.tsx","./src/components/futureskillcard.tsx","./src/components/learningcharts.tsx","./src/components/linkreviewbubble.tsx","./src/components/logrow.tsx","./src/components/memorydashboard.tsx","./src/components/metricscard.tsx","./src/components/metricspanel.tsx","./src/components/newskillproposal.tsx","./src/components/notificationmanager.tsx","./src/components/notificationspanel.tsx","./src/components/outputbubble.tsx","./src/components/ownerdashboard.tsx","./src/components/ownernotificationpanel.tsx","./src/components/ownerskillapproval.tsx","./src/components/ownerskillapprovalpanel.tsx","./src/components/skillcard-dynamic.tsx","./src/components/skillcard.backup.tsx","./src/components/skillcard.tsx","./src/components/skilloutputbubble.tsx","./src/components/skilloutputcard.tsx","./src/components/skillrecommendations.tsx","./src/components/skillstore.tsx","./src/components/statscard.tsx","./src/components/statuscard.tsx","./src/components/tiercard.tsx","./src/components/tiercardnew.tsx","./src/components/timedpermissions.tsx","./src/components/trialtierbanner.tsx","./src/components/unifiedaceydashboard.tsx","./src/components/upgradebutton.tsx","./src/components/index.ts","./src/contracts/intents.ts","./src/contracts/output.ts","./src/data/skillsdatabase.ts","./src/hooks/useapprovalworkflow.ts","./src/hooks/usebiometricauth.ts","./src/hooks/usenotifications.ts","./src/hooks/useofflinemode.ts","./src/hooks/useresponsive.ts","./src/hooks/usesecurity.ts","./src/marketing/enterpriseonboarding.ts","./src/marketing/index.ts","./src/marketing/publiclaunch.ts","./src/middleware/pricingmiddleware.ts","./src/navigation/appnavigator.tsx","./src/navigation/bottomtabnavigator.tsx","./src/navigation/rootnavigator.tsx","./src/navigation/rootstacknavigator.tsx","./src/navigation/upgradestack.tsx","./src/orchestrator/aceyorchestrator.ts","./src/orchestrator/enterprisetenant.ts","./src/orchestrator/index.ts","./src/orchestrator/intentrouter.ts","./src/orchestrator/investordeck.ts","./src/orchestrator/learningfeedback.ts","./src/orchestrator/modeloptimizer.ts","./src/orchestrator/permissiongate.ts","./src/orchestrator/previewgenerator.ts","./src/orchestrator/responsecomposer.ts","./src/orchestrator/skillpricing.ts","./src/orchestrator/tooldispatcher.ts","./src/routes/pricingroutes.ts","./src/routes/streamopsroutes.ts","./src/routes/upgradeuxroutes.ts","./src/screens/aceylab.tsx","./src/screens/aceylabdashboard.tsx","./src/screens/aceylabscreen.tsx","./src/screens/approvalsscreen.tsx","./src/screens/authscreen.tsx","./src/screens/codechatscreen.tsx","./src/screens/commandsscreen.tsx","./src/screens/dashboardscreen.tsx","./src/screens/demoflow.tsx","./src/screens/fulldashboardscreen.tsx","./src/screens/futureskillscreen.tsx","./src/screens/incidentdashboardscreen.tsx","./src/screens/landingpage.tsx","./src/screens/learningdashboard.tsx","./src/screens/logsscreen.tsx","./src/screens/metricsdashboard.tsx","./src/screens/pricingscreen.tsx","./src/screens/settings.tsx","./src/screens/skillstore.tsx","./src/screens/skillstorescreen-complete.tsx","./src/screens/skillstorescreen-dynamic.tsx","./src/screens/skillstorescreen-enhanced.tsx","./src/screens/skillstorescreen.tsx","./src/screens/streamopsproscreen.tsx","./src/screens/tieroverviewscreen.tsx","./src/screens/unlockceremonyscreen.tsx","./src/screens/upgradeconfirmationscreen-enhanced.tsx","./src/screens/upgradeconfirmationscreen-hooked.tsx","./src/screens/upgradeconfirmationscreen.tsx","./src/screens/upgradedashboardscreen.tsx","./src/screens/upgrademodal.tsx","./src/screens/upgradepromptmodal.tsx","./src/screens/upgradesuccessscreen-enhanced.tsx","./src/screens/upgradesuccessscreen-hooked.tsx","./src/screens/upgradesuccessscreen.tsx","./src/screens/upgradeuxscreen.tsx","./src/screens/index.ts","./src/server/aceybridge.ts","./src/server/autorules.ts","./src/server/filter.ts","./src/server/index.ts","./src/server/intentprocessor.ts","./src/server/simulationengine.ts","./src/server/validators.ts","./src/server/utils/adversarialselfcritique.ts","./src/server/utils/audiocodingorchestrator.ts","./src/server/utils/cognitivegovernance.ts","./src/server/utils/cognitiveloadthrottling.ts","./src/server/utils/coldstorage.ts","./src/server/utils/constitutionalintelligence.ts","./src/server/utils/continuouslearning.ts","./src/server/utils/crossmodelconsensus.ts","./src/server/utils/datasetqualityscorer.ts","./src/server/utils/distributedcognition.ts","./src/server/utils/emergentskilldiscovery.ts","./src/server/utils/enhancedorchestrator.ts","./src/server/utils/enhancedschema.ts","./src/server/utils/enhancements.ts","./src/server/utils/ethicalconstraints.ts","./src/server/utils/ethicalstresstesting.ts","./src/server/utils/finalgovernance.ts","./src/server/utils/goalconflictresolution.ts","./src/server/utils/governancecontracts.ts","./src/server/utils/governancesimulations.ts","./src/server/utils/librarymanager.ts","./src/server/utils/llmlogger.ts","./src/server/utils/longtermgoals.ts","./src/server/utils/memorycorruptiondetection.ts","./src/server/utils/memorydecay.ts","./src/server/utils/memorydeduplicator.ts","./src/server/utils/modelversionmanager.ts","./src/server/utils/multiaceyswarm.ts","./src/server/utils/multiagentdebate.ts","./src/server/utils/multihumanauthority.ts","./src/server/utils/orchestrator.ts","./src/server/utils/orchestratorenhancements.ts","./src/server/utils/performanceoptimizer.ts","./src/server/utils/prompttemplates.ts","./src/server/utils/realtimefinetune.ts","./src/server/utils/schema.ts","./src/server/utils/skilleconomics.ts","./src/server/utils/skillmarketplace.ts","./src/server/utils/storageconfig.ts","./src/server/utils/storagehealth.ts","./src/server/utils/storagepolicyengine.ts","./src/server/utils/taskhandlers.ts","./src/services/aceyadminorchestrator.ts","./src/services/aceyapi.ts","./src/services/aceymobilenotifier.ts","./src/services/aceymobileorchestrator.ts","./src/services/api.ts","./src/services/auditreplay.ts","./src/services/auth.ts","./src/services/authservice.ts","./src/services/biometricauth.ts","./src/services/cloudclusteringservice.ts","./src/services/complianceexportservice.ts","./src/services/datasetservice.ts","./src/services/hardwarekeyservice.ts","./src/services/incidentsummaryservice.ts","./src/services/investorpitchservice.ts","./src/services/metricsservice.ts","./src/services/monetizationservice.ts","./src/services/notificationservice.ts","./src/services/notifications.ts","./src/services/offlinecache.ts","./src/services/orchestratorapi.ts","./src/services/previewservice.ts","./src/services/pricingservice.ts","./src/services/quorumunlockservice.ts","./src/services/skillstoreservice.ts","./src/services/streamopsproskill.ts","./src/services/tenantisolationservice.ts","./src/services/timedpermissions.ts","./src/services/upgradeuxservice.ts","./src/services/websocket.ts","./src/state/aceystore.ts","./src/state/memorystore.ts","./src/state/personastate.ts","./src/state/truststore.ts","./src/types/api.ts","./src/types/auth.ts","./src/types/dashboard.ts","./src/types/futureskill.ts","./src/types/models.ts","./src/types/security.ts","./src/types/simulation.ts","./src/types/upgrade-dynamic.ts","./src/types/upgrade.ts","./src/ui/commandcenter.tsx","./src/ui/dashboardwithcommands.tsx","./src/ui/interactiveaceydashboard.tsx","./src/ui/orchestratordashboard.tsx","./src/ui/dashboard.tsx","./src/ui/simulationdashboard.tsx","./src/utils/auth.ts","./src/utils/devicetrust.ts","./src/utils/emergencylock.ts","./src/utils/index.ts","./src/utils/ownerpermissions.ts","./src/utils/permissions.ts","./src/utils/responsive.ts","./src/utils/reviewmemory.ts","./src/utils/runskillstest.ts","./src/utils/skillstest.ts"],"errors":true,"version":"5.9.3"}